/*--------------------------------*- C++ -*----------------------------------*\
  =========                 |
  \\      /  F ield         | OpenFOAM: The Open Source CFD Toolbox
   \\    /   O peration     | Website:  https://openfoam.org
    \\  /    A nd           | Version:  8
     \\/     M anipulation  |
\*---------------------------------------------------------------------------*/
FoamFile
{
    version     2.0;
    format      ascii;
    class       dictionary;
    location    "constant";
    object      dynamicMeshDict;
}
// * * * * * * * * * * * * * * * * * * * * * * * * * * * * * * * * * * * * * //

dynamicFvMesh   dynamicMotionSolverFvMesh;
//dynamicFvMesh   staticFvMesh;

motionSolverLibs ("forceBasedRotatingMotion.so");

motionSolver    solidBody;

cellZone        rotor;

solidBodyMotionFunction  forceBasedRotatingMotion;

forceBasedRotatingMotionCoeffs
{
    patches	     ("wallRotor");
    rhoRef	     1.225;
    origin           (0 0 0);
    axis             (0 0 1);
    momentOfIntertia 0.0336;
    opposingTorque   0.06;
    omega            0;
    angle	     0;
}



// ************************************************************************* //
