/*--------------------------------*- C++ -*----------------------------------*\
  =========                 |
  \\      /  F ield         | OpenFOAM: The Open Source CFD Toolbox
   \\    /   O peration     | Website:  https://openfoam.org
    \\  /    A nd           | Version:  8
     \\/     M anipulation  |
\*---------------------------------------------------------------------------*/
FoamFile
{
    version     2.0;
    format      ascii;
    class       dictionary;
    location    "constant";
    object      dynamicMeshDict;
}
// * * * * * * * * * * * * * * * * * * * * * * * * * * * * * * * * * * * * * //

dynamicFvMesh   dynamicMotionSolverFvMesh;
//dynamicFvMesh   staticFvMesh;

motionSolverLibs ("linearRampRotatingMotion.so");

motionSolver    solidBody;

cellZone        rotor;

solidBodyMotionFunction  linearRampRotatingMotion;

linearRampRotatingMotionCoeffs
{
    origin           (0 0 0);
    axis             (0 0 1);
    omegaInitial     1.5;
    omegaFinal       1.0;
    thetaInitial     0;
    thetaFinal       6.2831853;
    angle	     0;
}



// ************************************************************************* //
